
#======================================================================
# CRYSTAL DATA
#----------------------------------------------------------------------
data_VESTA_phase_1

_chemical_name_common                  'Al B N                                '
_cell_length_a                         17.527901
_cell_length_b                         17.527901
_cell_length_c                         15.000000
_cell_angle_alpha                      90.000000
_cell_angle_beta                       90.000000
_cell_angle_gamma                      120.000000
_cell_volume                           3990.999734
_space_group_name_H-M_alt              'P 1'
_space_group_IT_number                 1

loop_
_space_group_symop_operation_xyz
   'x, y, z'

loop_
   _atom_site_label
   _atom_site_occupancy
   _atom_site_fract_x
   _atom_site_fract_y
   _atom_site_fract_z
   _atom_site_adp_type
   _atom_site_U_iso_or_equiv
   _atom_site_type_symbol
   Al1        1.0     0.442446     0.506938     0.111179    Uiso  ? Al
   B1         1.0     0.904836     0.952601     0.110992    Uiso  ? B
   B2         1.0     0.906026     0.096171     0.111030    Uiso  ? B
   B3         1.0     0.906389     0.238909     0.111079    Uiso  ? B
   B4         1.0     0.906026     0.381284     0.111030    Uiso  ? B
   B5         1.0     0.904836     0.523665     0.110992    Uiso  ? B
   B6         1.0     0.903394     0.666051     0.111039    Uiso  ? B
   B7         1.0     0.903394     0.808773     0.111039    Uiso  ? B
   B8         1.0     0.046955     0.951858     0.111002    Uiso  ? B
   B9         1.0     0.048237     0.095541     0.111010    Uiso  ? B
   B10        1.0     0.049532     0.239232     0.111027    Uiso  ? B
   B11        1.0     0.049532     0.381730     0.111027    Uiso  ? B
   B12        1.0     0.048237     0.524126     0.111010    Uiso  ? B
   B13        1.0     0.046955     0.666529     0.111002    Uiso  ? B
   B14        1.0     0.046642     0.809037     0.110973    Uiso  ? B
   B15        1.0     0.189844     0.951766     0.110990    Uiso  ? B
   B16        1.0     0.190198     0.094368     0.111059    Uiso  ? B
   B17        1.0     0.191832     0.238392     0.111040    Uiso  ? B
   B18        1.0     0.193679     0.382555     0.111014    Uiso  ? B
   B19        1.0     0.191832     0.524870     0.111040    Uiso  ? B
   B20        1.0     0.190198     0.667261     0.111059    Uiso  ? B
   B21        1.0     0.189844     0.809510     0.110990    Uiso  ? B
   B22        1.0     0.333109     0.952271     0.111012    Uiso  ? B
   B23        1.0     0.333207     0.093586     0.111059    Uiso  ? B
   B24        1.0     0.333418     0.234710     0.111057    Uiso  ? B
   B25        1.0     0.335545     0.377361     0.111085    Uiso  ? B
   B26        1.0     0.335545     0.529615     0.111085    Uiso  ? B
   B27        1.0     0.333418     0.670139     0.111057    Uiso  ? B
   B28        1.0     0.333207     0.811051     0.111059    Uiso  ? B
   B29        1.0     0.476671     0.953504     0.111007    Uiso  ? B
   B30        1.0     0.476671     0.094597     0.111007    Uiso  ? B
   B31        1.0     0.476740     0.235585     0.111046    Uiso  ? B
   B32        1.0     0.477322     0.376551     0.111008    Uiso  ? B
   B33        1.0     0.477322     0.672201     0.111008    Uiso  ? B
   B34        1.0     0.476740     0.812586     0.111046    Uiso  ? B
   B35        1.0     0.620118     0.953851     0.111008    Uiso  ? B
   B36        1.0     0.620119     0.095774     0.110984    Uiso  ? B
   B37        1.0     0.620118     0.237697     0.111008    Uiso  ? B
   B38        1.0     0.619775     0.379749     0.111023    Uiso  ? B
   B39        1.0     0.616086     0.520898     0.111046    Uiso  ? B
   B40        1.0     0.616086     0.666618     0.111046    Uiso  ? B
   B41        1.0     0.619775     0.811456     0.111023    Uiso  ? B
   B42        1.0     0.762839     0.953473     0.110994    Uiso  ? B
   B43        1.0     0.763238     0.096174     0.111030    Uiso  ? B
   B44        1.0     0.763238     0.238493     0.111030    Uiso  ? B
   B45        1.0     0.762839     0.380797     0.110994    Uiso  ? B
   B46        1.0     0.761263     0.523029     0.111038    Uiso  ? B
   B47        1.0     0.759030     0.665230     0.111083    Uiso  ? B
   B48        1.0     0.761263     0.809665     0.111038    Uiso  ? B
   N1         1.0     0.951762     0.904312     0.110994    Uiso  ? N
   N2         1.0     0.952952     0.047969     0.110981    Uiso  ? N
   N3         1.0     0.953926     0.191367     0.111034    Uiso  ? N
   N4         1.0     0.953926     0.333986     0.111034    Uiso  ? N
   N5         1.0     0.952952     0.476410     0.110981    Uiso  ? N
   N6         1.0     0.951762     0.618879     0.110994    Uiso  ? N
   N7         1.0     0.951416     0.761423     0.111003    Uiso  ? N
   N8         1.0     0.094510     0.904180     0.110957    Uiso  ? N
   N9         1.0     0.094875     0.046934     0.111008    Uiso  ? N
   N10        1.0     0.096158     0.190640     0.111003    Uiso  ? N
   N11        1.0     0.097298     0.334363     0.111000    Uiso  ? N
   N12        1.0     0.096158     0.476946     0.111003    Uiso  ? N
   N13        1.0     0.094875     0.619370     0.111008    Uiso  ? N
   N14        1.0     0.094510     0.761760     0.110957    Uiso  ? N
   N15        1.0     0.237672     0.904551     0.110968    Uiso  ? N
   N16        1.0     0.237715     0.046488     0.111032    Uiso  ? N
   N17        1.0     0.237892     0.188788     0.111055    Uiso  ? N
   N18        1.0     0.239858     0.333338     0.111017    Uiso  ? N
   N19        1.0     0.239858     0.477949     0.111017    Uiso  ? N
   N20        1.0     0.237892     0.620534     0.111055    Uiso  ? N
   N21        1.0     0.237715     0.762656     0.111032    Uiso  ? N
   N22        1.0     0.381246     0.905897     0.111008    Uiso  ? N
   N23        1.0     0.381246     0.046777     0.111008    Uiso  ? N
   N24        1.0     0.381337     0.187532     0.111059    Uiso  ? N
   N25        1.0     0.381387     0.327658     0.110988    Uiso  ? N
   N26        1.0     0.381387     0.625158     0.110988    Uiso  ? N
   N27        1.0     0.381337     0.765234     0.111059    Uiso  ? N
   N28        1.0     0.524925     0.907350     0.111011    Uiso  ? N
   N29        1.0     0.524852     0.048140     0.110964    Uiso  ? N
   N30        1.0     0.524925     0.189003     0.111011    Uiso  ? N
   N31        1.0     0.525059     0.329481     0.111007    Uiso  ? N
   N32        1.0     0.523070     0.469341     0.111009    Uiso  ? N
   N33        1.0     0.523070     0.625157     0.111009    Uiso  ? N
   N34        1.0     0.525059     0.767007     0.111007    Uiso  ? N
   N35        1.0     0.667992     0.906810     0.110993    Uiso  ? N
   N36        1.0     0.668090     0.048858     0.110985    Uiso  ? N
   N37        1.0     0.668090     0.190659     0.110985    Uiso  ? N
   N38        1.0     0.667992     0.332610     0.110993    Uiso  ? N
   N39        1.0     0.666772     0.474933     0.111020    Uiso  ? N
   N40        1.0     0.664102     0.617765     0.111060    Uiso  ? N
   N41        1.0     0.666772     0.763268     0.111020    Uiso  ? N
   N42        1.0     0.809874     0.905383     0.110982    Uiso  ? N
   N43        1.0     0.810844     0.048748     0.111002    Uiso  ? N
   N44        1.0     0.811071     0.191249     0.111048    Uiso  ? N
   N45        1.0     0.810844     0.333523     0.111002    Uiso  ? N
   N46        1.0     0.809874     0.475920     0.110982    Uiso  ? N
   N47        1.0     0.808332     0.618460     0.111051    Uiso  ? N
   N48        1.0     0.808332     0.761301     0.111051    Uiso  ? N
